SMALL SAMPLE CIRCUIT

#REVISION: Rev: 42
*#SYSINFO: Win 10.0.22621  12th Gen Intel(R) Core(TM) i9-12950HX

.INC sample.MIS
.PRINT TRAN/ALL v(out)
.PRINT FILE output.csv
X1 IN A  7404  
R1 A 1  10K  
R2 VCC OUT  1K  
COUT OUT 0  0.1PF  
VIN IN 0 PULSE 0 4.5V 4n 5n 5n 60n 100n 10 
Q2 OUT 1 0  Q  

* Power rail voltage sources
VCC VCC 0 5V

* TopSpice Schematic 10.20  Simulation Setup Commands
.TRAN 0 1E-06

.OPTION SAVEOPB


.END
