* TopSPICE Schematic 7.07e Win32  Simulation Setup Commands

.TRAN 0 1E-006
.PROBE

.OPTION SAVEOPB
